/*--------------------------------*- C++ -*----------------------------------*\
| =========                 |                                                 |
| \\      /  F ield         | OpenFOAM: The Open Source CFD Toolbox           |
|  \\    /   O peration     | Version:  v2406                                 |
|   \\  /    A nd           | Website:  www.openfoam.com                      |
|    \\/     M anipulation  |                                                 |
\*---------------------------------------------------------------------------*/
FoamFile
{
    version     2.0;
    format      ascii;
    class       dictionary;
    object      controlDict;
}
// * * * * * * * * * * * * * * * * * * * * * * * * * * * * * * * * * * * * * //

application     reactingTwoPhaseEulerFoam;

startFrom       startTime;

startTime       0;

stopAt          endTime;

endTime         100;

deltaT          0.1;

writeControl    timeStep;

writeInterval   20;

purgeWrite      0;

writeFormat     ascii;

writePrecision  6;

writeCompression on;

timeFormat      general;

timePrecision   6;

runTimeModifiable yes;

adjustTimeStep  yes;

maxCo           0.1;

maxCoAlpha      0.1;

maxDeltaT       1e-2;

functions
{
    /*
    timeStepping
    {
        type            setTimeStep;
        libs            (utilityFunctionObjects);
        enabled         yes;
        deltaT
        {
            type table;
            file "<system>/deltaTvalues";
        }
    }
*/
    minMaxp
    {
        type        fieldMinMax;
        libs        (fieldFunctionObjects);
        fields
        (
            p
        );
        location        no;
        writeControl    timeStep;
        writeInterval   1;
    }
}


// ************************************************************************* //
