/*--------------------------------*- C++ -*----------------------------------*\
| =========                 |                                                 |
| \\      /  F ield         | OpenFOAM: The Open Source CFD Toolbox           |
|  \\    /   O peration     | Version:  v2406                                 |
|   \\  /    A nd           | Website:  www.openfoam.com                      |
|    \\/     M anipulation  |                                                 |
\*---------------------------------------------------------------------------*/
FoamFile
{
    version     2.0;
    format      ascii;
    class       dictionary;
    object      fvSolution;
}
// * * * * * * * * * * * * * * * * * * * * * * * * * * * * * * * * * * * * * //

solvers
{
    "alpha.*"
    {
        nAlphaCorr      1;
        nAlphaSubCycles 2;
    }

    p_rgh
    {
        solver          PCG;
        preconditioner
        {
            preconditioner  GAMG;
            tolerance       1e-7;
            relTol          0.01;
            smoother        GaussSeidel;
        }
        tolerance       1e-8;
        relTol          0;
        minIter          1;
        maxIter          1000;
    }

    p_rghFinal
    {
        solver          PCG;
        preconditioner
        {
            preconditioner  GAMG;
            tolerance       1e-07;
            relTol          0;
            nVcycles        2;
            smoother        GaussSeidel;
        }
        tolerance       1e-07;
        relTol          0;
        minIter         1;
        maxIter          1000;
    }

    "U.*"
    {
        solver          smoothSolver;
        smoother        GaussSeidel;
        tolerance       1e-7;
        relTol          0;
        minIter         1;
    }

    "e.*"
    {
        solver          smoothSolver;
        smoother        GaussSeidel;
        tolerance       1e-7;
        relTol          0;
        minIter         1;
        maxIter          1000;
    }

    "(k|epsilon|Theta).*"
    {
        solver          smoothSolver;
        smoother        GaussSeidel;
        tolerance       1e-7;
        relTol          0;
        minIter         1;
    }
}

PIMPLE
{
    nOuterCorrectors 3;
    nCorrectors      1;
    nNonOrthogonalCorrectors 0;
}

relaxationFactors
{
    equations
    {
        "U.*"            0.9;
        "e.*"            0.5;
    }
}


// ************************************************************************* //
